Version 4
SHEET 1 1016 680
WIRE 304 16 304 -64
WIRE 304 16 272 16
WIRE 416 16 384 16
WIRE 304 48 304 16
WIRE 304 48 272 48
WIRE 416 96 416 16
WIRE 384 112 384 16
WIRE 384 112 272 112
WIRE 384 176 384 112
WIRE 384 176 272 176
WIRE 96 240 64 240
WIRE 304 240 304 48
WIRE 304 240 272 240
WIRE 64 256 64 240
FLAG 416 96 0
FLAG 608 32 0
FLAG 608 -48 Vcc
FLAG 304 -64 Vcc
FLAG 496 -48 CLK
FLAG 496 32 0
FLAG 720 32 0
FLAG 720 -48 RCLK
FLAG 272 144 RCLK
FLAG 272 80 CLK
FLAG 64 256 0
SYMBOL AutoGenerated\\74HC590 176 128 R0
SYMATTR InstName U1
SYMBOL res 400 0 R90
WINDOW 0 0 56 VBottom 2
WINDOW 3 32 56 VTop 2
SYMATTR InstName R1
SYMATTR Value 100k
SYMBOL voltage 608 -64 R0
WINDOW 123 0 0 Left 0
WINDOW 39 0 0 Left 0
SYMATTR InstName V1
SYMATTR Value 5
SYMBOL voltage 496 -64 R0
WINDOW 3 6 127 Left 2
WINDOW 123 0 0 Left 0
WINDOW 39 0 0 Left 0
SYMATTR InstName V2
SYMATTR Value PULSE(0 5 0 5n 5n .5u 1u)
SYMBOL voltage 720 -64 R0
WINDOW 123 0 0 Left 0
WINDOW 39 0 0 Left 0
SYMATTR InstName V3
SYMATTR Value PWL(0 0 8.2u 0 8.5u 5)
TEXT 44 298 Left 2 !.tran 10u
