Version 4
SHEET 1 1860 680
WIRE 1104 -224 -512 -224
WIRE -512 -128 -512 -224
WIRE -512 -128 -576 -128
WIRE -432 -128 -512 -128
WIRE -256 -128 -368 -128
WIRE -224 -128 -256 -128
WIRE -80 -128 -160 -128
WIRE -32 -128 -80 -128
WIRE 112 -128 -32 -128
WIRE 240 -128 224 -128
WIRE 368 -128 320 -128
WIRE 416 -128 368 -128
WIRE 560 -128 528 -128
WIRE 672 -128 672 -160
WIRE 672 -128 624 -128
WIRE 1072 -128 672 -128
WIRE 368 -112 368 -128
WIRE -32 -96 -32 -128
WIRE 672 -96 672 -128
WIRE -256 -80 -256 -128
WIRE 368 -32 368 -48
WIRE 672 0 672 -16
WIRE -256 16 -256 0
WIRE -32 16 -32 -16
WIRE 800 64 768 64
WIRE 1008 64 976 64
WIRE 800 96 768 96
WIRE 1008 96 976 96
WIRE -80 128 -80 -128
WIRE 400 128 272 128
WIRE 800 128 464 128
WIRE 1008 128 976 128
WIRE 1072 160 1072 -128
WIRE 1072 160 976 160
WIRE -1248 192 -1248 176
WIRE -1088 192 -1088 176
WIRE 1008 192 976 192
WIRE 1104 224 1104 -224
WIRE 1104 224 976 224
WIRE 1120 256 976 256
WIRE 1264 256 1232 256
WIRE 1376 256 1264 256
WIRE 1424 256 1376 256
WIRE 1264 272 1264 256
WIRE -1248 288 -1248 272
WIRE -1088 288 -1088 272
WIRE 800 288 768 288
WIRE 1376 304 1376 256
WIRE 768 320 768 288
WIRE 1264 400 1264 352
WIRE 1376 400 1376 368
FLAG -1248 288 0
FLAG -1088 288 0
FLAG -1088 176 V+
FLAG 1008 64 V+
FLAG 1008 192 0
FLAG 1008 128 0
FLAG -1248 96 CLK
FLAG 768 320 0
FLAG -576 -128 CLK
FLAG 368 -32 0
FLAG -256 16 0
FLAG 1376 400 0
FLAG 672 0 0
FLAG 672 -160 TP3
FLAG -32 16 0
FLAG 1264 400 0
FLAG 1488 256 V+
SYMBOL AutoGenerated\\74HC590 880 176 R0
SYMATTR InstName U1
SYMBOL voltage -1088 176 R0
WINDOW 123 0 0 Left 0
WINDOW 39 0 0 Left 0
SYMATTR InstName V1
SYMATTR Value PWL(0 0 .1u 0 .5u 5)
SYMBOL voltage -1248 176 R0
WINDOW 3 79 136 VLeft 2
WINDOW 123 0 0 Left 0
WINDOW 39 0 0 Left 0
SYMATTR InstName V2
SYMATTR Value PULSE(0 5 .3u 2n 2n 2.5u 5u)
SYMBOL ZZZ\\LOGIC\\74HC\\74hc14 160 -176 R0
SYMATTR InstName U2
SYMBOL res 336 -144 R90
WINDOW 0 0 56 VBottom 2
WINDOW 3 32 56 VTop 2
SYMATTR InstName R1
SYMATTR Value 1k
SYMBOL cap 352 -112 R0
SYMATTR InstName C1
SYMATTR Value 300p
SYMBOL ZZZ\\LOGIC\\74HC\\74hc14 464 -176 R0
SYMATTR InstName U3
SYMBOL cap -368 -144 R90
WINDOW 0 0 32 VBottom 2
WINDOW 3 32 32 VTop 2
SYMATTR InstName C2
SYMATTR Value 680p
SYMBOL res -272 -96 R0
SYMATTR InstName R2
SYMATTR Value 1k
SYMBOL diode 1392 368 R180
WINDOW 0 24 64 Left 2
WINDOW 3 24 0 Left 2
SYMATTR InstName D1
SYMATTR Value 1N4148
SYMBOL res -1264 80 R0
SYMATTR InstName R3
SYMATTR Value 220
SYMBOL diode 560 -112 R270
WINDOW 0 32 32 VTop 2
WINDOW 3 0 32 VBottom 2
SYMATTR InstName D2
SYMATTR Value 1N4148
SYMBOL res 656 -112 R0
SYMATTR InstName R5
SYMATTR Value 22k
SYMBOL diode -224 -112 R270
WINDOW 0 32 32 VTop 2
WINDOW 3 0 32 VBottom 2
SYMATTR InstName D3
SYMATTR Value 1N4148
SYMBOL diode 464 112 R90
WINDOW 0 0 32 VBottom 2
WINDOW 3 32 32 VTop 2
SYMATTR InstName D4
SYMATTR Value 1N4148
SYMBOL res -48 -112 R0
SYMATTR InstName R4
SYMATTR Value 22k
SYMBOL cap 272 112 R90
WINDOW 0 0 32 VBottom 2
WINDOW 3 32 32 VTop 2
SYMATTR InstName C3
SYMATTR Value 680p
SYMBOL ZZZ\\LOGIC\\74HC\\74hc14 1184 304 R180
SYMATTR InstName U4
SYMBOL res 1248 256 R0
SYMATTR InstName R6
SYMATTR Value 1k
SYMBOL cap 1488 240 R90
WINDOW 0 0 32 VBottom 2
WINDOW 3 32 32 VTop 2
SYMATTR InstName C4
SYMATTR Value 680p
TEXT -1258 346 Left 2 !.tran 40u startup
TEXT 1128 176 Left 2 ;Replace V+ with T3 from protoboard startup sequence
