Version 4
SHEET 1 2388 1412
WIRE -880 -608 -880 -656
WIRE 640 -608 -880 -608
WIRE 608 -576 208 -576
WIRE 576 -544 336 -544
WIRE 336 -528 336 -544
WIRE 336 -528 320 -528
WIRE 368 -496 320 -496
WIRE 672 -496 672 -512
WIRE 672 -496 544 -496
WIRE -880 -464 -880 -608
WIRE -880 -464 -912 -464
WIRE -864 -464 -880 -464
WIRE -752 -464 -800 -464
WIRE -672 -464 -752 -464
WIRE -592 -464 -672 -464
WIRE -432 -464 -480 -464
WIRE -288 -464 -352 -464
WIRE -240 -464 -288 -464
WIRE -48 -464 -48 -528
WIRE -48 -464 -128 -464
WIRE 208 -464 208 -576
WIRE 208 -464 -48 -464
WIRE 368 -464 320 -464
WIRE 576 -464 576 -544
WIRE 576 -464 544 -464
WIRE -752 -432 -752 -464
WIRE -672 -432 -672 -464
WIRE -288 -432 -288 -464
WIRE -48 -432 -48 -464
WIRE 672 -432 544 -432
WIRE 672 -416 672 -432
WIRE 608 -400 608 -576
WIRE 608 -400 544 -400
WIRE 672 -368 544 -368
WIRE 672 -352 672 -368
WIRE -752 -336 -752 -368
WIRE -672 -336 -672 -352
WIRE -288 -336 -288 -368
WIRE -48 -336 -48 -352
WIRE 640 -336 640 -608
WIRE 640 -336 544 -336
WIRE 608 -304 544 -304
WIRE 368 -272 336 -272
WIRE -656 -256 -912 -256
WIRE -528 -256 -592 -256
WIRE -448 -256 -528 -256
WIRE -320 -256 -384 -256
WIRE -240 -256 -320 -256
WIRE 208 -256 -128 -256
WIRE 336 -240 336 -272
WIRE -528 -224 -528 -256
WIRE -320 -224 -320 -256
WIRE 208 -176 208 -256
WIRE 608 -176 608 -304
WIRE 608 -176 208 -176
WIRE -528 -128 -528 -144
WIRE -320 -128 -320 -144
WIRE 1712 -112 1088 -112
WIRE 1904 -96 1824 -96
WIRE 1712 -80 1600 -80
WIRE 1248 -48 1088 -48
WIRE 1376 -48 1328 -48
WIRE 1456 -48 1376 -48
WIRE 1600 -48 1600 -80
WIRE 1600 -48 1568 -48
WIRE -256 -32 -288 -32
WIRE -112 -32 -144 -32
WIRE 1376 -32 1376 -48
WIRE 48 -16 48 -80
WIRE 96 -16 48 -16
WIRE 192 -16 160 -16
WIRE 1376 48 1376 32
WIRE -576 80 -576 64
WIRE -576 80 -704 80
WIRE -528 80 -576 80
WIRE -400 80 -416 80
WIRE -288 80 -288 -32
WIRE -288 80 -320 80
WIRE -256 80 -288 80
WIRE -112 80 -112 -32
WIRE -112 80 -144 80
WIRE -64 80 -112 80
WIRE 48 80 48 -16
WIRE 48 80 16 80
WIRE 80 80 48 80
WIRE 192 80 192 -16
WIRE 192 80 160 80
WIRE 432 80 192 80
WIRE 784 80 544 80
WIRE 928 80 784 80
WIRE -1312 96 -1312 64
WIRE -576 96 -576 80
WIRE 784 96 784 80
WIRE -288 112 -288 80
WIRE 192 112 192 80
WIRE -960 128 -960 80
WIRE -864 128 -960 128
WIRE -768 128 -784 128
WIRE 1712 144 1088 144
WIRE 1904 160 1824 160
WIRE 1712 176 1600 176
WIRE -1312 192 -1312 176
WIRE -960 192 -960 128
WIRE -704 192 -704 176
WIRE -576 192 -576 160
WIRE -576 192 -704 192
WIRE -288 192 -288 176
WIRE 192 192 192 176
WIRE 1248 208 1088 208
WIRE 1376 208 1328 208
WIRE 1456 208 1376 208
WIRE 1600 208 1600 176
WIRE 1600 208 1568 208
WIRE 1376 224 1376 208
WIRE -576 240 -576 192
WIRE 48 272 48 80
WIRE 96 272 48 272
WIRE 256 272 160 272
WIRE 400 272 336 272
WIRE 1376 304 1376 288
WIRE 48 368 48 272
WIRE 96 368 48 368
WIRE 256 368 160 368
WIRE 400 368 400 272
WIRE 400 368 336 368
WIRE 496 368 400 368
WIRE 624 368 496 368
WIRE 784 368 736 368
WIRE 928 368 784 368
WIRE 1104 368 1088 368
WIRE 1280 368 1216 368
WIRE 1840 368 1280 368
WIRE 784 384 784 368
WIRE 2032 384 1952 384
WIRE 496 400 496 368
WIRE 1840 400 1728 400
WIRE 1280 432 1280 368
WIRE 1344 432 1280 432
WIRE 1440 432 1424 432
WIRE 1504 432 1440 432
WIRE 1584 432 1504 432
WIRE 1728 432 1728 400
WIRE 1728 432 1696 432
WIRE 1504 448 1504 432
WIRE 496 480 496 464
WIRE 1280 512 1280 432
WIRE 1360 512 1280 512
WIRE 1440 512 1440 432
WIRE 1440 512 1424 512
WIRE 1504 528 1504 512
WIRE 48 560 48 368
WIRE 96 560 48 560
WIRE 192 560 160 560
WIRE 1104 592 1088 592
WIRE 1280 592 1216 592
WIRE 1840 592 1280 592
WIRE 2032 608 1952 608
WIRE 1840 624 1728 624
WIRE 48 656 48 560
WIRE 80 656 48 656
WIRE 192 656 192 560
WIRE 192 656 160 656
WIRE 432 656 192 656
WIRE 784 656 544 656
WIRE 928 656 784 656
WIRE 1280 656 1280 592
WIRE 1344 656 1280 656
WIRE 1440 656 1424 656
WIRE 1504 656 1440 656
WIRE 1584 656 1504 656
WIRE 1728 656 1728 624
WIRE 1728 656 1696 656
WIRE 784 672 784 656
WIRE 1504 672 1504 656
WIRE 192 688 192 656
WIRE 1280 736 1280 656
WIRE 1360 736 1280 736
WIRE 1440 736 1440 656
WIRE 1440 736 1424 736
WIRE 1504 752 1504 736
WIRE 192 768 192 752
FLAG -960 272 0
FLAG -1168 272 0
FLAG -1168 192 V+
FLAG 784 176 0
FLAG 784 464 0
FLAG -576 240 0
FLAG -576 -16 V+
FLAG -288 192 0
FLAG 496 480 0
FLAG 928 80 A3
FLAG 928 368 A4
FLAG 1904 -96 STEPCNT_LE
FLAG 1904 160 VCF_LE
FLAG 928 656 OFFSETS_~OE
FLAG 2032 608 NOTE_LE
FLAG 192 192 0
FLAG 1088 -112 A3
FLAG 1376 48 0
FLAG 1088 -48 A3
FLAG 1376 304 0
FLAG 1088 144 A4
FLAG 1088 208 A4
FLAG 2032 384 NOISE_THRSH_LE
FLAG 1088 368 A3
FLAG 1504 528 0
FLAG 1504 752 0
FLAG 1088 592 A4
FLAG 784 752 0
FLAG 192 768 0
FLAG 48 -80 TP2
FLAG -960 80 TP1
FLAG -48 -528 TP4
FLAG -912 -256 V+
FLAG -528 -128 0
FLAG -320 -128 0
FLAG -288 -336 0
FLAG -672 -336 0
FLAG -752 -336 0
FLAG -48 -336 0
FLAG 336 -240 0
FLAG -912 -464 SRCLK
FLAG -1312 272 0
FLAG -1312 64 SRCLK
FLAG -880 -656 TP3
FLAG 672 -352 0
FLAG 672 -416 0
FLAG 672 -512 V+
FLAG 320 -528 A0
FLAG 320 -496 A1
FLAG 320 -464 A2
SYMBOL voltage -960 176 R0
WINDOW 3 -130 144 Left 2
WINDOW 123 0 0 Left 0
WINDOW 39 0 0 Left 0
SYMATTR Value PWL(0 0 5n 5 50n 5 55n 0 155n 0 160n 5 210n 5 215n 0)
SYMATTR InstName V1
SYMBOL voltage -1168 176 R0
WINDOW 123 0 0 Left 0
WINDOW 39 0 0 Left 0
SYMATTR InstName V2
SYMATTR Value 5
SYMBOL res 768 368 R0
SYMATTR InstName R4
SYMATTR Value 22k
SYMBOL res -592 -32 R0
SYMATTR InstName R10
SYMATTR Value 5.6k
SYMBOL cap -592 96 R0
SYMATTR InstName C4
SYMATTR Value 100p
SYMBOL npn -768 80 R0
SYMATTR InstName Q1
SYMATTR Value BC337-25
SYMBOL ZZZ\\LOGIC\\74HCT\\74hct14 -480 32 R0
SYMATTR InstName U9
SYMBOL ZZZ\\LOGIC\\74HCT\\74hct14 672 320 R0
SYMATTR InstName U3
SYMBOL ZZZ\\LOGIC\\74HCT\\74hct14 -208 32 R0
SYMATTR InstName U10
SYMBOL res -304 64 R90
WINDOW 0 0 56 VBottom 2
WINDOW 3 32 56 VTop 2
SYMATTR InstName R11
SYMATTR Value 5.6k
SYMBOL cap -304 112 R0
SYMATTR InstName C5
SYMATTR Value 100p
SYMBOL res -768 112 R90
WINDOW 0 0 56 VBottom 2
WINDOW 3 32 56 VTop 2
SYMATTR InstName R14
SYMATTR Value 1k
SYMBOL cap 480 400 R0
SYMATTR InstName C6
SYMATTR Value 300p
SYMBOL res 768 80 R0
SYMATTR InstName R13
SYMATTR Value 22k
SYMBOL diode 160 -32 R90
WINDOW 0 0 32 VBottom 2
WINDOW 3 32 32 VTop 2
SYMATTR InstName D9
SYMATTR Value 1N4148
SYMBOL res 176 64 R90
WINDOW 0 0 56 VBottom 2
WINDOW 3 32 56 VTop 2
SYMATTR InstName R24
SYMATTR Value 4.7k
SYMBOL cap 176 112 R0
SYMATTR InstName C12
SYMATTR Value 100p
SYMBOL ZZZ\\LOGIC\\74HC\\74hc08 1760 -160 R0
SYMATTR InstName U8
SYMBOL res 1344 -64 R90
WINDOW 0 0 56 VBottom 2
WINDOW 3 32 56 VTop 2
SYMATTR InstName R1
SYMATTR Value 1k
SYMBOL cap 1360 -32 R0
SYMATTR InstName C7
SYMATTR Value 680p
SYMBOL ZZZ\\LOGIC\\74HCT\\74hct14 480 32 R0
SYMATTR InstName U1
SYMBOL diode 160 256 R90
WINDOW 0 0 32 VBottom 2
WINDOW 3 32 32 VTop 2
SYMATTR InstName D1
SYMATTR Value 1N4148
SYMBOL diode 96 384 R270
WINDOW 0 32 32 VTop 2
WINDOW 3 0 32 VBottom 2
SYMATTR InstName D3
SYMATTR Value 1N4148
SYMBOL res 352 256 R90
WINDOW 0 0 56 VBottom 2
WINDOW 3 32 56 VTop 2
SYMATTR InstName R2
SYMATTR Value 1k
SYMBOL res 352 352 R90
WINDOW 0 0 56 VBottom 2
WINDOW 3 32 56 VTop 2
SYMATTR InstName R3
SYMATTR Value 10k
SYMBOL ZZZ\\LOGIC\\74HCT\\74hct14 1504 -96 R0
SYMATTR InstName U2
SYMBOL ZZZ\\LOGIC\\74HCT\\74hct14 -208 -80 R0
SYMATTR InstName U4
SYMBOL ZZZ\\LOGIC\\74HC\\74hc08 1760 96 R0
SYMATTR InstName U5
SYMBOL res 1344 192 R90
WINDOW 0 0 56 VBottom 2
WINDOW 3 32 56 VTop 2
SYMATTR InstName R5
SYMATTR Value 1k
SYMBOL cap 1360 224 R0
SYMATTR InstName C1
SYMATTR Value 680p
SYMBOL ZZZ\\LOGIC\\74HCT\\74hct14 1504 160 R0
SYMATTR InstName U6
SYMBOL ZZZ\\LOGIC\\74HC\\74hc08 1888 320 R0
SYMATTR InstName U13
SYMBOL res 1440 416 R90
WINDOW 0 0 56 VBottom 2
WINDOW 3 32 56 VTop 2
SYMATTR InstName R15
SYMATTR Value 1k
SYMBOL cap 1488 448 R0
SYMATTR InstName C8
SYMATTR Value 680p
SYMBOL ZZZ\\LOGIC\\74HCT\\74hct14 1632 384 R0
SYMATTR InstName U14
SYMBOL ZZZ\\LOGIC\\74HCT\\74hct14 1152 320 R0
SYMATTR InstName U7
SYMBOL ZZZ\\LOGIC\\74HC\\74hc08 1888 544 R0
SYMATTR InstName U11
SYMBOL res 1440 640 R90
WINDOW 0 0 56 VBottom 2
WINDOW 3 32 56 VTop 2
SYMATTR InstName R6
SYMATTR Value 1k
SYMBOL cap 1488 672 R0
SYMATTR InstName C2
SYMATTR Value 680p
SYMBOL ZZZ\\LOGIC\\74HCT\\74hct14 1632 608 R0
SYMATTR InstName U15
SYMBOL ZZZ\\LOGIC\\74HCT\\74hct14 1152 544 R0
SYMATTR InstName U16
SYMBOL res 768 656 R0
SYMATTR InstName R7
SYMATTR Value 22k
SYMBOL diode 160 544 R90
WINDOW 0 0 32 VBottom 2
WINDOW 3 32 32 VTop 2
SYMATTR InstName D2
SYMATTR Value 1N4148
SYMBOL res 176 640 R90
WINDOW 0 0 56 VBottom 2
WINDOW 3 32 56 VTop 2
SYMATTR InstName R8
SYMATTR Value 22k
SYMBOL cap 176 688 R0
SYMATTR InstName C3
SYMATTR Value 300p
SYMBOL ZZZ\\LOGIC\\74HCT\\74hct14 480 608 R0
SYMATTR InstName U12
SYMBOL res 32 64 R90
WINDOW 0 0 56 VBottom 2
WINDOW 3 32 56 VTop 2
SYMATTR InstName R9
SYMATTR Value 100
SYMBOL diode 1424 496 R90
WINDOW 0 0 32 VBottom 2
WINDOW 3 32 32 VTop 2
SYMATTR InstName D4
SYMATTR Value 1N4148
SYMBOL diode 1424 720 R90
WINDOW 0 0 32 VBottom 2
WINDOW 3 32 32 VTop 2
SYMATTR InstName D5
SYMATTR Value 1N4148
SYMBOL cap -800 -480 R90
WINDOW 0 0 32 VBottom 2
WINDOW 3 32 32 VTop 2
SYMATTR InstName C9
SYMATTR Value 680p
SYMBOL diode -736 -368 R180
WINDOW 0 24 64 Left 2
WINDOW 3 24 0 Left 2
SYMATTR InstName D6
SYMATTR Value 1N4148
SYMBOL res -688 -448 R0
SYMATTR InstName R12
SYMATTR Value 1k
SYMBOL ZZZ\\LOGIC\\74HCT\\74hct14 -544 -512 R0
SYMATTR InstName U17
SYMBOL res -336 -480 R90
WINDOW 0 0 56 VBottom 2
WINDOW 3 32 56 VTop 2
SYMATTR InstName R16
SYMATTR Value 1k
SYMBOL cap -272 -368 R180
WINDOW 0 24 56 Left 2
WINDOW 3 24 8 Left 2
SYMATTR InstName C10
SYMATTR Value 300p
SYMBOL ZZZ\\LOGIC\\74HCT\\74hct14 -192 -512 R0
SYMATTR InstName U18
SYMBOL res -64 -448 R0
SYMATTR InstName R17
SYMATTR Value 22k
SYMBOL AutoGenerated\\74HC590 448 -384 R0
SYMATTR InstName U19
SYMBOL ZZZ\\LOGIC\\74HCT\\74hct14 -192 -304 R0
SYMATTR InstName U20
SYMBOL res -336 -240 R0
SYMATTR InstName R18
SYMATTR Value 22k
SYMBOL diode -448 -240 R270
WINDOW 0 32 32 VTop 2
WINDOW 3 0 32 VBottom 2
SYMATTR InstName D7
SYMATTR Value 1N4148
SYMBOL res -544 -240 R0
SYMATTR InstName R19
SYMATTR Value 1k
SYMBOL cap -592 -272 R90
WINDOW 0 0 32 VBottom 2
WINDOW 3 32 32 VTop 2
SYMATTR InstName C11
SYMATTR Value 680p
SYMBOL voltage -1312 176 R0
SYMATTR InstName V3
SYMBOL res -1328 80 R0
SYMATTR InstName R20
SYMATTR Value 220
TEXT -1168 96 Left 2 !.tran 5u
TEXT -1128 -224 Left 2 ;Replace with T1 from startup sequence
