Version 4
SHEET 1 2036 680
WIRE 1376 -224 -256 -224
WIRE -256 -128 -256 -224
WIRE -256 -128 -320 -128
WIRE -176 -128 -256 -128
WIRE -48 -128 -112 -128
WIRE 0 -128 -48 -128
WIRE 112 -128 0 -128
WIRE 240 -128 224 -128
WIRE 368 -128 320 -128
WIRE 416 -128 368 -128
WIRE 672 -128 672 -160
WIRE 672 -128 528 -128
WIRE 1344 -128 672 -128
WIRE 368 -112 368 -128
WIRE -48 -96 -48 -128
WIRE 672 -96 672 -128
WIRE 0 -80 0 -128
WIRE 368 -32 368 -48
WIRE 672 0 672 -16
WIRE 1264 0 928 0
WIRE -48 16 -48 -32
WIRE 0 16 0 0
WIRE 928 32 928 0
WIRE 928 32 848 32
WIRE 960 64 848 64
WIRE 1168 64 1136 64
WIRE 960 96 848 96
WIRE 1264 96 1264 0
WIRE 1264 96 1136 96
WIRE 1168 128 1136 128
WIRE 1344 160 1344 -128
WIRE 1344 160 1136 160
WIRE -1248 192 -1248 176
WIRE -1088 192 -1088 176
WIRE 1168 192 1136 192
WIRE 1376 224 1376 -224
WIRE 1376 224 1136 224
WIRE 1392 256 1136 256
WIRE 1584 256 1504 256
WIRE 1648 256 1584 256
WIRE 1744 256 1712 256
WIRE 1824 256 1744 256
WIRE 1968 256 1888 256
WIRE 1744 272 1744 256
WIRE -1248 288 -1248 272
WIRE -1088 288 -1088 272
WIRE 960 288 928 288
WIRE 1584 288 1584 256
WIRE 928 320 928 288
WIRE 1584 384 1584 368
WIRE 1744 384 1744 352
FLAG -1248 288 0
FLAG -1088 288 0
FLAG -1088 176 V+
FLAG 1168 64 V+
FLAG 1168 192 0
FLAG 1168 128 0
FLAG -1248 96 SRCLK
FLAG 928 320 0
FLAG -320 -128 SRCLK
FLAG 368 -32 0
FLAG 0 16 0
FLAG 672 0 0
FLAG 672 -160 TP3
FLAG 1744 384 0
FLAG 1968 256 V+
FLAG 1584 384 0
FLAG -48 16 0
FLAG 848 32 A0
FLAG 848 64 A1
FLAG 848 96 A2
SYMBOL AutoGenerated\\74HC590 1040 176 R0
SYMATTR InstName U1
SYMBOL voltage -1088 176 R0
WINDOW 123 0 0 Left 0
WINDOW 39 0 0 Left 0
SYMATTR InstName V1
SYMATTR Value PWL(0 0 .1u 0 .2u 5)
SYMBOL voltage -1248 176 R0
WINDOW 3 79 136 VLeft 2
WINDOW 123 0 0 Left 0
WINDOW 39 0 0 Left 0
SYMATTR InstName V2
SYMATTR Value PULSE(0 5 .4u 2n 2n 2.5u 5u)
SYMBOL ZZZ\\LOGIC\\74HC\\74hc14 160 -176 R0
SYMATTR InstName U2
SYMBOL res 336 -144 R90
WINDOW 0 0 56 VBottom 2
WINDOW 3 32 56 VTop 2
SYMATTR InstName R1
SYMATTR Value 1k
SYMBOL cap 352 -112 R0
SYMATTR InstName C1
SYMATTR Value 300p
SYMBOL ZZZ\\LOGIC\\74HC\\74hc14 464 -176 R0
SYMATTR InstName U3
SYMBOL cap -112 -144 R90
WINDOW 0 0 32 VBottom 2
WINDOW 3 32 32 VTop 2
SYMATTR InstName C2
SYMATTR Value 680p
SYMBOL res -16 -96 R0
SYMATTR InstName R2
SYMATTR Value 1k
SYMBOL res -1264 80 R0
SYMATTR InstName R3
SYMATTR Value 220
SYMBOL res 656 -112 R0
SYMATTR InstName R5
SYMATTR Value 22k
SYMBOL ZZZ\\LOGIC\\74HC\\74hc14 1456 304 R180
SYMATTR InstName U4
SYMBOL res 1728 256 R0
SYMATTR InstName R6
SYMATTR Value 1k
SYMBOL cap 1888 240 R90
WINDOW 0 0 32 VBottom 2
WINDOW 3 32 32 VTop 2
SYMATTR InstName C4
SYMATTR Value 680p
SYMBOL diode 1712 240 R90
WINDOW 0 0 32 VBottom 2
WINDOW 3 32 32 VTop 2
SYMATTR InstName D5
SYMATTR Value 1N4148
SYMBOL res 1568 272 R0
SYMATTR InstName R7
SYMATTR Value 22k
SYMBOL diode -32 -32 R180
WINDOW 0 24 64 Left 2
WINDOW 3 24 0 Left 2
SYMATTR InstName D2
SYMATTR Value 1N4148
TEXT -1258 346 Left 2 !.tran 100u startup
TEXT 1400 176 Left 2 ;Replace with T1 from protoboard startup sequence
