Version 4
SHEET 1 2316 1412
WIRE 1600 -320 992 -320
WIRE 1456 -256 1088 -256
WIRE 1600 -240 1600 -320
WIRE 1600 -240 1568 -240
WIRE 1616 -240 1600 -240
WIRE 1760 -240 1680 -240
WIRE 1840 -240 1760 -240
WIRE 1936 -240 1840 -240
WIRE 1456 -224 1440 -224
WIRE 1760 -208 1760 -240
WIRE 1840 -208 1840 -240
WIRE 1216 -192 1088 -192
WIRE 992 -160 992 -320
WIRE 1088 -160 992 -160
WIRE 1216 -160 1216 -192
WIRE 1760 -96 1760 -144
WIRE 1840 -96 1840 -128
WIRE 1088 -64 1088 -96
WIRE 1088 -64 1056 -64
WIRE 1120 -64 1088 -64
WIRE 1216 -64 1216 -96
WIRE 1216 -64 1120 -64
WIRE 1312 -64 1216 -64
WIRE 1440 -64 1440 -224
WIRE 1440 -64 1424 -64
WIRE 1056 -16 1056 -64
WIRE 1120 -16 1120 -64
WIRE -496 80 -496 64
WIRE -496 80 -624 80
WIRE -448 80 -496 80
WIRE -320 80 -336 80
WIRE -208 80 -240 80
WIRE -176 80 -208 80
WIRE 208 80 160 80
WIRE 256 80 208 80
WIRE 352 80 320 80
WIRE 400 80 352 80
WIRE 1056 80 1056 48
WIRE 1120 80 1120 64
WIRE -496 96 -496 80
WIRE 400 96 400 80
WIRE 448 96 400 96
WIRE 624 96 560 96
WIRE 704 96 624 96
WIRE -208 112 -208 80
WIRE 624 112 624 96
WIRE -784 128 -880 128
WIRE -688 128 -704 128
WIRE 1296 144 1088 144
WIRE 1440 160 1408 160
WIRE 1456 160 1440 160
WIRE 1616 160 1520 160
WIRE 1680 160 1616 160
WIRE 1776 160 1680 160
WIRE 1296 176 1264 176
WIRE -880 192 -880 128
WIRE -624 192 -624 176
WIRE -496 192 -496 160
WIRE -496 192 -624 192
WIRE -208 192 -208 176
WIRE 1680 192 1680 160
WIRE 1120 208 1088 208
WIRE 1616 208 1616 160
WIRE -496 240 -496 192
WIRE 1120 256 1120 208
WIRE 1152 256 1120 256
WIRE 1264 272 1264 176
WIRE 1152 288 1120 288
WIRE 1616 304 1616 272
WIRE 1680 304 1680 272
WIRE 48 320 48 80
WIRE 80 320 48 320
WIRE 208 320 160 320
WIRE 256 320 208 320
WIRE 416 320 368 320
WIRE 464 320 416 320
WIRE 560 320 528 320
WIRE 608 320 560 320
WIRE 608 336 608 320
WIRE 656 336 608 336
WIRE 832 336 768 336
WIRE 896 336 832 336
WIRE 208 352 208 320
WIRE 832 352 832 336
WIRE 1120 352 1120 288
WIRE 1312 352 1120 352
WIRE 1440 352 1440 160
WIRE 1440 352 1424 352
WIRE 208 432 208 416
WIRE 1136 480 1088 480
WIRE 1248 480 1200 480
WIRE 1280 480 1248 480
WIRE 1456 480 1280 480
WIRE 1664 480 1520 480
WIRE 48 544 48 320
WIRE 144 544 48 544
WIRE 192 544 144 544
WIRE 288 544 256 544
WIRE 400 544 288 544
WIRE 576 544 512 544
WIRE 816 544 688 544
WIRE 880 544 816 544
WIRE 816 592 816 544
WIRE 1280 592 1280 560
WIRE 1088 656 1088 480
WIRE 1248 656 1248 480
WIRE 1264 656 1248 656
WIRE 1440 656 1376 656
WIRE 1568 672 1552 672
WIRE 1664 672 1664 480
WIRE 1664 672 1648 672
WIRE 1680 672 1664 672
WIRE 1824 672 1744 672
WIRE 1904 672 1824 672
WIRE 2000 672 1904 672
WIRE 1440 688 1424 688
WIRE 1824 704 1824 672
WIRE 1904 704 1904 672
WIRE 1200 720 1088 720
WIRE 1200 752 1200 720
WIRE 1424 752 1424 688
WIRE 1424 752 1200 752
WIRE 1824 816 1824 768
WIRE 1904 816 1904 784
WIRE 1552 880 1552 848
WIRE 1184 960 1072 960
WIRE 1360 960 1296 960
WIRE 1552 960 1552 944
WIRE 1552 960 1440 960
WIRE 1744 960 1552 960
WIRE 1968 960 1856 960
FLAG -880 272 0
FLAG -1088 272 0
FLAG -1088 192 V+
FLAG 624 192 0
FLAG 208 0 V+
FLAG 352 0 V+
FLAG 832 432 0
FLAG 416 240 V+
FLAG 560 240 V+
FLAG -496 240 0
FLAG -496 -16 V+
FLAG 144 624 0
FLAG 288 624 0
FLAG -208 192 0
FLAG 816 672 0
FLAG 208 432 0
FLAG 704 96 A3
FLAG 1088 -256 A3
FLAG 896 336 A4
FLAG 1088 -192 A4
FLAG 1936 -240 STEPCNT_LE
FLAG 1840 -96 0
FLAG 1088 144 A3
FLAG 1088 208 A4
FLAG 1680 304 0
FLAG 1616 304 0
FLAG 1776 160 VCF_LE
FLAG 1120 80 0
FLAG 1056 80 0
FLAG 1760 -96 0
FLAG 1088 656 A3
FLAG 1088 720 A4
FLAG 2000 672 NOISE_THRSH
FLAG 1904 816 0
FLAG 1824 816 0
FLAG 1280 592 0
FLAG 880 544 OFFSETS_~OE
FLAG 1968 960 NOTE_LE
FLAG 1072 960 NOISE_THRSH
FLAG 1552 848 V+
SYMBOL voltage -880 176 R0
WINDOW 3 -130 144 Left 2
WINDOW 123 0 0 Left 0
WINDOW 39 0 0 Left 0
SYMATTR Value PWL(0 0 5n 5 50n 5 55n 0 155n 0 160n 5 210n 5 215n 0)
SYMATTR InstName V1
SYMBOL voltage -1088 176 R0
WINDOW 123 0 0 Left 0
WINDOW 39 0 0 Left 0
SYMATTR InstName V2
SYMATTR Value 5
SYMBOL res 192 -16 R0
SYMATTR InstName R2
SYMATTR Value 22k
SYMBOL res 336 -16 R0
SYMATTR InstName R3
SYMATTR Value 22k
SYMBOL cap 320 64 R90
WINDOW 0 0 32 VBottom 2
WINDOW 3 32 32 VTop 2
SYMATTR InstName C1
SYMATTR Value 20p
SYMBOL res 816 336 R0
SYMATTR InstName R4
SYMATTR Value 22k
SYMBOL res 400 224 R0
SYMATTR InstName R5
SYMATTR Value 22k
SYMBOL res 544 224 R0
SYMATTR InstName R6
SYMATTR Value 22k
SYMBOL cap 528 304 R90
WINDOW 0 0 32 VBottom 2
WINDOW 3 32 32 VTop 2
SYMATTR InstName C2
SYMATTR Value 20p
SYMBOL res 800 576 R0
SYMATTR InstName R7
SYMATTR Value 22k
SYMBOL res 128 528 R0
SYMATTR InstName R8
SYMATTR Value 22k
SYMBOL res 272 528 R0
SYMATTR InstName R9
SYMATTR Value 22k
SYMBOL cap 256 528 R90
WINDOW 0 0 32 VBottom 2
WINDOW 3 32 32 VTop 2
SYMATTR InstName C3
SYMATTR Value 10p
SYMBOL res -512 -32 R0
SYMATTR InstName R10
SYMATTR Value 5.6k
SYMBOL cap -512 96 R0
SYMATTR InstName C4
SYMATTR Value 10p
SYMBOL npn -688 80 R0
SYMATTR InstName Q1
SYMATTR Value BC337-25
SYMBOL ZZZ\\LOGIC\\74HCT\\74hct14 -400 32 R0
SYMATTR InstName U9
SYMBOL ZZZ\\LOGIC\\74HCT\\74hct14 96 32 R0
SYMATTR InstName U1
SYMBOL ZZZ\\LOGIC\\74HCT\\74hct14 496 48 R0
SYMATTR InstName U2
SYMBOL ZZZ\\LOGIC\\74HCT\\74hct14 704 288 R0
SYMATTR InstName U3
SYMBOL ZZZ\\LOGIC\\74HCT\\74hct14 304 272 R0
SYMATTR InstName U4
SYMBOL ZZZ\\LOGIC\\74HCT\\74hct14 448 496 R0
SYMATTR InstName U5
SYMBOL ZZZ\\LOGIC\\74HCT\\74hct14 -16 32 R0
SYMATTR InstName U6
SYMBOL ZZZ\\LOGIC\\74HCT\\74hct14 -128 32 R0
SYMATTR InstName U10
SYMBOL res -224 64 R90
WINDOW 0 0 56 VBottom 2
WINDOW 3 32 56 VTop 2
SYMATTR InstName R11
SYMATTR Value 10k
SYMBOL cap -224 112 R0
SYMATTR InstName C5
SYMATTR Value 20p
SYMBOL res -688 112 R90
WINDOW 0 0 56 VBottom 2
WINDOW 3 32 56 VTop 2
SYMATTR InstName R14
SYMATTR Value 1k
SYMBOL ZZZ\\LOGIC\\74HCT\\74hct14 624 496 R0
SYMATTR InstName U12
SYMBOL cap 192 352 R0
SYMATTR InstName C6
SYMATTR Value 10p
SYMBOL res 176 304 R90
WINDOW 0 0 56 VBottom 2
WINDOW 3 32 56 VTop 2
SYMATTR InstName R12
SYMATTR Value 22k
SYMBOL res 608 96 R0
SYMATTR InstName R13
SYMATTR Value 22k
SYMBOL ZZZ\\LOGIC\\74HC\\74hc08 1504 -304 R0
SYMATTR InstName U7
SYMBOL ZZZ\\LOGIC\\74HCT\\74hct14 1360 -112 R0
SYMATTR InstName U8
SYMBOL cap 1680 -256 R90
WINDOW 0 0 32 VBottom 2
WINDOW 3 32 32 VTop 2
SYMATTR InstName C7
SYMATTR Value 56p
SYMBOL res 1824 -224 R0
SYMATTR InstName R1
SYMATTR Value 22k
SYMBOL ZZZ\\LOGIC\\74HC\\74hc08 1344 96 R0
SYMATTR InstName U11
SYMBOL cap 1520 144 R90
WINDOW 0 0 32 VBottom 2
WINDOW 3 32 32 VTop 2
SYMATTR InstName C8
SYMATTR Value 56p
SYMBOL res 1664 176 R0
SYMATTR InstName R15
SYMATTR Value 22k
SYMBOL diode 1632 272 R180
WINDOW 0 24 64 Left 2
WINDOW 3 24 0 Left 2
SYMATTR InstName D2
SYMATTR Value 1N4148
SYMBOL diode 1200 -160 R0
SYMATTR InstName D3
SYMATTR Value 1N4148
SYMBOL diode 1072 -160 R0
SYMATTR InstName D4
SYMATTR Value 1N4148
SYMBOL res 1104 -32 R0
SYMATTR InstName R16
SYMATTR Value 10k
SYMBOL cap 1040 -16 R0
SYMATTR InstName C9
SYMATTR Value 10p
SYMBOL diode 1776 -144 R180
WINDOW 0 24 64 Left 2
WINDOW 3 24 0 Left 2
SYMATTR InstName D1
SYMATTR Value 1N4148
SYMBOL ZZZ\\LOGIC\\74HC\\74hc08 1200 208 R0
SYMATTR InstName U13
SYMBOL ZZZ\\LOGIC\\74HCT\\74hct14 1376 400 R180
SYMATTR InstName U14
SYMBOL ZZZ\\LOGIC\\74HC\\74hc08 1488 608 R0
SYMATTR InstName U15
SYMBOL ZZZ\\LOGIC\\74HCT\\74hct14 1312 608 R0
SYMATTR InstName U16
SYMBOL cap 1744 656 R90
WINDOW 0 0 32 VBottom 2
WINDOW 3 32 32 VTop 2
SYMATTR InstName C10
SYMATTR Value 56p
SYMBOL res 1888 688 R0
SYMATTR InstName R17
SYMATTR Value 22k
SYMBOL diode 1840 768 R180
WINDOW 0 24 64 Left 2
WINDOW 3 24 0 Left 2
SYMATTR InstName D7
SYMATTR Value 1N4148
SYMBOL diode 1136 496 R270
WINDOW 0 32 32 VTop 2
WINDOW 3 0 32 VBottom 2
SYMATTR InstName D5
SYMATTR Value 1N4148
SYMBOL diode 1520 464 R90
WINDOW 0 0 32 VBottom 2
WINDOW 3 32 32 VTop 2
SYMATTR InstName D6
SYMATTR Value 1N4148
SYMBOL res 1264 464 R0
SYMATTR InstName R18
SYMATTR Value 22k
SYMBOL ZZZ\\LOGIC\\74HCT\\74hct14 1232 912 R0
SYMATTR InstName U17
SYMBOL ZZZ\\LOGIC\\74HCT\\74hct14 1792 912 R0
SYMATTR InstName U18
SYMBOL cap 1568 944 R180
WINDOW 0 24 56 Left 2
WINDOW 3 24 8 Left 2
SYMATTR InstName C11
SYMATTR Value 10p
SYMBOL res 1456 944 R90
WINDOW 0 0 56 VBottom 2
WINDOW 3 32 56 VTop 2
SYMATTR InstName R19
SYMATTR Value 470
SYMBOL res 1664 656 R90
WINDOW 0 0 56 VBottom 2
WINDOW 3 32 56 VTop 2
SYMATTR InstName R20
SYMATTR Value 10
TEXT -1088 96 Left 2 !.tran 1u
